Version 4
SHEET 1 880 680
WIRE -144 112 -144 0
WIRE -240 192 -256 192
WIRE -192 192 -240 192
WIRE -256 288 -256 192
WIRE -144 288 -144 208
WIRE -144 288 -256 288
FLAG -144 0 5V
FLAG -240 192 2
SYMBOL nmos4 -192 112 R0
SYMATTR InstName M1
SYMBOL nmos4 256 112 R0
SYMATTR InstName M2
SYMBOL nmos4 368 112 R0
SYMATTR InstName M3
SYMBOL nmos4 80 464 R0
SYMATTR InstName M4
SYMBOL nmos4 400 464 R0
SYMATTR InstName M5
SYMBOL nmos4 704 432 R0
SYMATTR InstName M6
